# generated using pymatgen
 data_Mg
 _symmetry_space_group_name_H-M   'P 23'
 _cell_length_a   3.204
 _cell_length_b   3.204
 _cell_length_c   3.204
 _cell_angle_alpha   90.00000000
 _cell_angle_beta    90.00000000
 _cell_angle_gamma   90.00000000
 _chemical_formula_structural   Mg
 loop_
  _atom_site_type_symbol
  _atom_site_label
  _atom_site_symmetry_multiplicity
  _atom_site_fract_x
  _atom_site_fract_y
  _atom_site_fract_z
  _atom_site_occupancy
  Mg  Mg1  1  0.0  0.0  0.0  1
